!- Windows Line endings 

Version,
    25.1;                     !- Version Identifier

SimulationControl,
    No,                       !- Do Zone Sizing Calculation
    No,                       !- Do System Sizing Calculation
    No,                       !- Do Plant Sizing Calculation
    Yes,                      !- Run Simulation for Sizing Periods
    No,                       !- Run Simulation for Weather File Run Periods
    No,                       !- Do HVAC Sizing Simulation for Sizing Periods
    1;                        !- Maximum Number of HVAC Sizing Simulation Passes

Building,
    None,                     !- Name
    0,                        !- North Axis
    Suburbs,                  !- Terrain
    0.04,                     !- Loads Convergence Tolerance Value
    0.4,                      !- Temperature Convergence Tolerance Value
    FullInteriorAndExterior,    !- Solar Distribution
    25,                       !- Maximum Number of Warmup Days
    6;                        !- Minimum Number of Warmup Days

Timestep,
    4;                        !- Number of Timesteps per Hour

Site:Location,
    DENVER_STAPLETON_CO_USA_WMO_724690,    !- Name
    39.77,                    !- Latitude
    -104.87,                  !- Longitude
    -7,                       !- Time Zone
    1611;                     !- Elevation

SizingPeriod:DesignDay,
    DENVER_STAPLETON Ann Htg 99.6% Condns DB,    !- Name
    12,                       !- Month
    21,                       !- Day of Month
    WinterDesignDay,          !- Day Type
    -20,                      !- Maximum DryBulb Temperature
    0,                        !- Daily DryBulb Temperature Range
    ,                         !- DryBulb Temperature Range Modifier Type
    ,                         !- DryBulb Temperature Range Modifier Day Schedule Name
    Wetbulb,                  !- Humidity Condition Type
    -20,                      !- Wetbulb or DewPoint at Maximum DryBulb
    ,                         !- Humidity Condition Day Schedule Name
    ,                         !- Humidity Ratio at Maximum DryBulb
    ,                         !- Enthalpy at Maximum DryBulb
    ,                         !- Daily WetBulb Temperature Range
    83411,                    !- Barometric Pressure
    2.3,                      !- Wind Speed
    180,                      !- Wind Direction
    No,                       !- Rain Indicator
    No,                       !- Snow Indicator
    No,                       !- Daylight Saving Time Indicator
    ASHRAEClearSky,           !- Solar Model Indicator
    ,                         !- Beam Solar Day Schedule Name
    ,                         !- Diffuse Solar Day Schedule Name
    ,                         !- ASHRAE Clear Sky Optical Depth for Beam Irradiance taub
    ,                         !- ASHRAE Clear Sky Optical Depth for Diffuse Irradiance taud
    0;                        !- Sky Clearness

SizingPeriod:DesignDay,
    DENVER_STAPLETON Ann Clg .4% Condns DB=>MWB,    !- Name
    7,                        !- Month
    21,                       !- Day of Month
    SummerDesignDay,          !- Day Type
    34.1,                     !- Maximum DryBulb Temperature
    15.2,                     !- Daily DryBulb Temperature Range
    ,                         !- DryBulb Temperature Range Modifier Type
    ,                         !- DryBulb Temperature Range Modifier Day Schedule Name
    Wetbulb,                  !- Humidity Condition Type
    15.8,                     !- Wetbulb or DewPoint at Maximum DryBulb
    ,                         !- Humidity Condition Day Schedule Name
    ,                         !- Humidity Ratio at Maximum DryBulb
    ,                         !- Enthalpy at Maximum DryBulb
    ,                         !- Daily WetBulb Temperature Range
    83411,                    !- Barometric Pressure
    4,                        !- Wind Speed
    120,                      !- Wind Direction
    No,                       !- Rain Indicator
    No,                       !- Snow Indicator
    No,                       !- Daylight Saving Time Indicator
    ASHRAEClearSky,           !- Solar Model Indicator
    ,                         !- Beam Solar Day Schedule Name
    ,                         !- Diffuse Solar Day Schedule Name
    ,                         !- ASHRAE Clear Sky Optical Depth for Beam Irradiance taub
    ,                         !- ASHRAE Clear Sky Optical Depth for Diffuse Irradiance taud
    1;                        !- Sky Clearness

RunPeriod,
    Run Period 1,             !- Name
    1,                        !- Begin Month
    1,                        !- Begin Day of Month
    ,                         !- Begin Year
    12,                       !- End Month
    31,                       !- End Day of Month
    ,                         !- End Year
    Tuesday,                  !- Day of Week for Start Day
    Yes,                      !- Use Weather File Holidays and Special Days
    Yes,                      !- Use Weather File Daylight Saving Period
    No,                       !- Apply Weekend Holiday Rule
    Yes,                      !- Use Weather File Rain Indicators
    Yes;                      !- Use Weather File Snow Indicators

MATERIAL,
    DefaultMaterial,          !- Name
    Rough,                    !- Roughness
    0.1,                      !- Thickness
    0.1,                      !- Conductivity
    1000,                     !- Density
    1000,                     !- Specific Heat
    0.9,                      !- Thermal Absorptance
    0.7,                      !- Solar Absorptance
    0.7;                      !- Visible Absorptance

WINDOWMATERIAL:SIMPLEGLAZINGSYSTEM,
    DefaultGlazing,           !- Name
    2.7,                      !- UFactor
    0.763,                    !- Solar Heat Gain Coefficient
    0.8;                      !- Visible Transmittance

CONSTRUCTION,
    Project Wall,             !- Name
    DefaultMaterial;          !- Outside Layer

CONSTRUCTION,
    Project Partition,        !- Name
    DefaultMaterial;          !- Outside Layer

CONSTRUCTION,
    Project Floor,            !- Name
    DefaultMaterial;          !- Outside Layer

CONSTRUCTION,
    Project Flat Roof,        !- Name
    DefaultMaterial;          !- Outside Layer

CONSTRUCTION,
    Project Ceiling,          !- Name
    DefaultMaterial;          !- Outside Layer

CONSTRUCTION,
    Project Door,             !- Name
    DefaultMaterial;          !- Outside Layer

CONSTRUCTION,
    Project External Window,    !- Name
    DefaultGlazing;           !- Outside Layer

GlobalGeometryRules,
    UpperLeftCorner,          !- Starting Vertex Position
    CounterClockWise,         !- Vertex Entry Direction
    World;                    !- Coordinate System

ZONE,
    Block Two storey Storey 0,    !- Name
    0,                        !- Direction of Relative North
    0,                        !- X Origin
    0,                        !- Y Origin
    0,                        !- Z Origin
    1,                        !- Type
    1,                        !- Multiplier
    autocalculate,            !- Ceiling Height
    autocalculate,            !- Volume
    autocalculate,            !- Floor Area
    ,                         !- Zone Inside Convection Algorithm
    ,                         !- Zone Outside Convection Algorithm
    Yes;                      !- Part of Total Floor Area

ZONE,
    Block Two storey Storey 1,    !- Name
    0,                        !- Direction of Relative North
    0,                        !- X Origin
    0,                        !- Y Origin
    0,                        !- Z Origin
    1,                        !- Type
    1,                        !- Multiplier
    autocalculate,            !- Ceiling Height
    autocalculate,            !- Volume
    autocalculate,            !- Floor Area
    ,                         !- Zone Inside Convection Algorithm
    ,                         !- Zone Outside Convection Algorithm
    Yes;                      !- Part of Total Floor Area

ZONE,
    Block One storey Storey 0,    !- Name
    0,                        !- Direction of Relative North
    0,                        !- X Origin
    0,                        !- Y Origin
    0,                        !- Z Origin
    1,                        !- Type
    1,                        !- Multiplier
    autocalculate,            !- Ceiling Height
    autocalculate,            !- Volume
    autocalculate,            !- Floor Area
    ,                         !- Zone Inside Convection Algorithm
    ,                         !- Zone Outside Convection Algorithm
    Yes;                      !- Part of Total Floor Area

BUILDINGSURFACE:DETAILED,
    Block Two storey Storey 0 Wall 0001,    !- Name
    wall,                     !- Surface Type
    Project Wall,             !- Construction Name
    Block Two storey Storey 0,    !- Zone Name
    ,                         !- Space Name
    outdoors,                 !- Outside Boundary Condition
    ,                         !- Outside Boundary Condition Object
    SunExposed,               !- Sun Exposure
    WindExposed,              !- Wind Exposure
    autocalculate,            !- View Factor to Ground
    autocalculate,            !- Number of Vertices
    10,                       !- Vertex 1 Xcoordinate
    0,                        !- Vertex 1 Ycoordinate
    3,                        !- Vertex 1 Zcoordinate
    10,                       !- Vertex 2 Xcoordinate
    0,                        !- Vertex 2 Ycoordinate
    0,                        !- Vertex 2 Zcoordinate
    10,                       !- Vertex 3 Xcoordinate
    5,                        !- Vertex 3 Ycoordinate
    0,                        !- Vertex 3 Zcoordinate
    10,                       !- Vertex 4 Xcoordinate
    5,                        !- Vertex 4 Ycoordinate
    3;                        !- Vertex 4 Zcoordinate

BUILDINGSURFACE:DETAILED,
    Block Two storey Storey 0 Wall 0003,    !- Name
    wall,                     !- Surface Type
    Project Wall,             !- Construction Name
    Block Two storey Storey 0,    !- Zone Name
    ,                         !- Space Name
    outdoors,                 !- Outside Boundary Condition
    ,                         !- Outside Boundary Condition Object
    SunExposed,               !- Sun Exposure
    WindExposed,              !- Wind Exposure
    autocalculate,            !- View Factor to Ground
    autocalculate,            !- Number of Vertices
    0,                        !- Vertex 1 Xcoordinate
    5,                        !- Vertex 1 Ycoordinate
    3,                        !- Vertex 1 Zcoordinate
    0,                        !- Vertex 2 Xcoordinate
    5,                        !- Vertex 2 Ycoordinate
    0,                        !- Vertex 2 Zcoordinate
    0,                        !- Vertex 3 Xcoordinate
    0,                        !- Vertex 3 Ycoordinate
    0,                        !- Vertex 3 Zcoordinate
    0,                        !- Vertex 4 Xcoordinate
    0,                        !- Vertex 4 Ycoordinate
    3;                        !- Vertex 4 Zcoordinate

BUILDINGSURFACE:DETAILED,
    Block Two storey Storey 0 Wall 0004,    !- Name
    wall,                     !- Surface Type
    Project Wall,             !- Construction Name
    Block Two storey Storey 0,    !- Zone Name
    ,                         !- Space Name
    outdoors,                 !- Outside Boundary Condition
    ,                         !- Outside Boundary Condition Object
    SunExposed,               !- Sun Exposure
    WindExposed,              !- Wind Exposure
    autocalculate,            !- View Factor to Ground
    autocalculate,            !- Number of Vertices
    0,                        !- Vertex 1 Xcoordinate
    0,                        !- Vertex 1 Ycoordinate
    3,                        !- Vertex 1 Zcoordinate
    0,                        !- Vertex 2 Xcoordinate
    0,                        !- Vertex 2 Ycoordinate
    0,                        !- Vertex 2 Zcoordinate
    10,                       !- Vertex 3 Xcoordinate
    0,                        !- Vertex 3 Ycoordinate
    0,                        !- Vertex 3 Zcoordinate
    10,                       !- Vertex 4 Xcoordinate
    0,                        !- Vertex 4 Ycoordinate
    3;                        !- Vertex 4 Zcoordinate

BUILDINGSURFACE:DETAILED,
    Block Two storey Storey 0 Floor 0001,    !- Name
    floor,                    !- Surface Type
    Project Floor,            !- Construction Name
    Block Two storey Storey 0,    !- Zone Name
    ,                         !- Space Name
    ground,                   !- Outside Boundary Condition
    ,                         !- Outside Boundary Condition Object
    NoSun,                    !- Sun Exposure
    NoWind,                   !- Wind Exposure
    autocalculate,            !- View Factor to Ground
    autocalculate,            !- Number of Vertices
    10,                       !- Vertex 1 Xcoordinate
    5,                        !- Vertex 1 Ycoordinate
    0,                        !- Vertex 1 Zcoordinate
    10,                       !- Vertex 2 Xcoordinate
    0,                        !- Vertex 2 Ycoordinate
    0,                        !- Vertex 2 Zcoordinate
    0,                        !- Vertex 3 Xcoordinate
    0,                        !- Vertex 3 Ycoordinate
    0,                        !- Vertex 3 Zcoordinate
    0,                        !- Vertex 4 Xcoordinate
    5,                        !- Vertex 4 Ycoordinate
    0;                        !- Vertex 4 Zcoordinate

BUILDINGSURFACE:DETAILED,
    Block Two storey Storey 1 Wall 0001,    !- Name
    wall,                     !- Surface Type
    Project Wall,             !- Construction Name
    Block Two storey Storey 1,    !- Zone Name
    ,                         !- Space Name
    outdoors,                 !- Outside Boundary Condition
    ,                         !- Outside Boundary Condition Object
    SunExposed,               !- Sun Exposure
    WindExposed,              !- Wind Exposure
    autocalculate,            !- View Factor to Ground
    autocalculate,            !- Number of Vertices
    10,                       !- Vertex 1 Xcoordinate
    0,                        !- Vertex 1 Ycoordinate
    6,                        !- Vertex 1 Zcoordinate
    10,                       !- Vertex 2 Xcoordinate
    0,                        !- Vertex 2 Ycoordinate
    3,                        !- Vertex 2 Zcoordinate
    10,                       !- Vertex 3 Xcoordinate
    5,                        !- Vertex 3 Ycoordinate
    3,                        !- Vertex 3 Zcoordinate
    10,                       !- Vertex 4 Xcoordinate
    5,                        !- Vertex 4 Ycoordinate
    6;                        !- Vertex 4 Zcoordinate

BUILDINGSURFACE:DETAILED,
    Block Two storey Storey 1 Wall 0002,    !- Name
    wall,                     !- Surface Type
    Project Wall,             !- Construction Name
    Block Two storey Storey 1,    !- Zone Name
    ,                         !- Space Name
    outdoors,                 !- Outside Boundary Condition
    ,                         !- Outside Boundary Condition Object
    SunExposed,               !- Sun Exposure
    WindExposed,              !- Wind Exposure
    autocalculate,            !- View Factor to Ground
    autocalculate,            !- Number of Vertices
    10,                       !- Vertex 1 Xcoordinate
    5,                        !- Vertex 1 Ycoordinate
    6,                        !- Vertex 1 Zcoordinate
    10,                       !- Vertex 2 Xcoordinate
    5,                        !- Vertex 2 Ycoordinate
    3,                        !- Vertex 2 Zcoordinate
    0,                        !- Vertex 3 Xcoordinate
    5,                        !- Vertex 3 Ycoordinate
    3,                        !- Vertex 3 Zcoordinate
    0,                        !- Vertex 4 Xcoordinate
    5,                        !- Vertex 4 Ycoordinate
    6;                        !- Vertex 4 Zcoordinate

BUILDINGSURFACE:DETAILED,
    Block Two storey Storey 1 Wall 0003,    !- Name
    wall,                     !- Surface Type
    Project Wall,             !- Construction Name
    Block Two storey Storey 1,    !- Zone Name
    ,                         !- Space Name
    outdoors,                 !- Outside Boundary Condition
    ,                         !- Outside Boundary Condition Object
    SunExposed,               !- Sun Exposure
    WindExposed,              !- Wind Exposure
    autocalculate,            !- View Factor to Ground
    autocalculate,            !- Number of Vertices
    0,                        !- Vertex 1 Xcoordinate
    5,                        !- Vertex 1 Ycoordinate
    6,                        !- Vertex 1 Zcoordinate
    0,                        !- Vertex 2 Xcoordinate
    5,                        !- Vertex 2 Ycoordinate
    3,                        !- Vertex 2 Zcoordinate
    0,                        !- Vertex 3 Xcoordinate
    0,                        !- Vertex 3 Ycoordinate
    3,                        !- Vertex 3 Zcoordinate
    0,                        !- Vertex 4 Xcoordinate
    0,                        !- Vertex 4 Ycoordinate
    6;                        !- Vertex 4 Zcoordinate

BUILDINGSURFACE:DETAILED,
    Block Two storey Storey 1 Wall 0004,    !- Name
    wall,                     !- Surface Type
    Project Wall,             !- Construction Name
    Block Two storey Storey 1,    !- Zone Name
    ,                         !- Space Name
    outdoors,                 !- Outside Boundary Condition
    ,                         !- Outside Boundary Condition Object
    SunExposed,               !- Sun Exposure
    WindExposed,              !- Wind Exposure
    autocalculate,            !- View Factor to Ground
    autocalculate,            !- Number of Vertices
    0,                        !- Vertex 1 Xcoordinate
    0,                        !- Vertex 1 Ycoordinate
    6,                        !- Vertex 1 Zcoordinate
    0,                        !- Vertex 2 Xcoordinate
    0,                        !- Vertex 2 Ycoordinate
    3,                        !- Vertex 2 Zcoordinate
    10,                       !- Vertex 3 Xcoordinate
    0,                        !- Vertex 3 Ycoordinate
    3,                        !- Vertex 3 Zcoordinate
    10,                       !- Vertex 4 Xcoordinate
    0,                        !- Vertex 4 Ycoordinate
    6;                        !- Vertex 4 Zcoordinate

BUILDINGSURFACE:DETAILED,
    Block Two storey Storey 1 Roof 0001,    !- Name
    roof,                     !- Surface Type
    Project Flat Roof,        !- Construction Name
    Block Two storey Storey 1,    !- Zone Name
    ,                         !- Space Name
    outdoors,                 !- Outside Boundary Condition
    ,                         !- Outside Boundary Condition Object
    SunExposed,               !- Sun Exposure
    WindExposed,              !- Wind Exposure
    autocalculate,            !- View Factor to Ground
    autocalculate,            !- Number of Vertices
    10,                       !- Vertex 1 Xcoordinate
    0,                        !- Vertex 1 Ycoordinate
    6,                        !- Vertex 1 Zcoordinate
    10,                       !- Vertex 2 Xcoordinate
    5,                        !- Vertex 2 Ycoordinate
    6,                        !- Vertex 2 Zcoordinate
    0,                        !- Vertex 3 Xcoordinate
    5,                        !- Vertex 3 Ycoordinate
    6,                        !- Vertex 3 Zcoordinate
    0,                        !- Vertex 4 Xcoordinate
    0,                        !- Vertex 4 Ycoordinate
    6;                        !- Vertex 4 Zcoordinate

BUILDINGSURFACE:DETAILED,
    Block One storey Storey 0 Wall 0001,    !- Name
    wall,                     !- Surface Type
    Project Wall,             !- Construction Name
    Block One storey Storey 0,    !- Zone Name
    ,                         !- Space Name
    outdoors,                 !- Outside Boundary Condition
    ,                         !- Outside Boundary Condition Object
    SunExposed,               !- Sun Exposure
    WindExposed,              !- Wind Exposure
    autocalculate,            !- View Factor to Ground
    autocalculate,            !- Number of Vertices
    10,                       !- Vertex 1 Xcoordinate
    5,                        !- Vertex 1 Ycoordinate
    3,                        !- Vertex 1 Zcoordinate
    10,                       !- Vertex 2 Xcoordinate
    5,                        !- Vertex 2 Ycoordinate
    0,                        !- Vertex 2 Zcoordinate
    10,                       !- Vertex 3 Xcoordinate
    10,                       !- Vertex 3 Ycoordinate
    0,                        !- Vertex 3 Zcoordinate
    10,                       !- Vertex 4 Xcoordinate
    10,                       !- Vertex 4 Ycoordinate
    3;                        !- Vertex 4 Zcoordinate

BUILDINGSURFACE:DETAILED,
    Block One storey Storey 0 Wall 0002,    !- Name
    wall,                     !- Surface Type
    Project Wall,             !- Construction Name
    Block One storey Storey 0,    !- Zone Name
    ,                         !- Space Name
    outdoors,                 !- Outside Boundary Condition
    ,                         !- Outside Boundary Condition Object
    SunExposed,               !- Sun Exposure
    WindExposed,              !- Wind Exposure
    autocalculate,            !- View Factor to Ground
    autocalculate,            !- Number of Vertices
    10,                       !- Vertex 1 Xcoordinate
    10,                       !- Vertex 1 Ycoordinate
    3,                        !- Vertex 1 Zcoordinate
    10,                       !- Vertex 2 Xcoordinate
    10,                       !- Vertex 2 Ycoordinate
    0,                        !- Vertex 2 Zcoordinate
    0,                        !- Vertex 3 Xcoordinate
    10,                       !- Vertex 3 Ycoordinate
    0,                        !- Vertex 3 Zcoordinate
    0,                        !- Vertex 4 Xcoordinate
    10,                       !- Vertex 4 Ycoordinate
    3;                        !- Vertex 4 Zcoordinate

BUILDINGSURFACE:DETAILED,
    Block One storey Storey 0 Wall 0003,    !- Name
    wall,                     !- Surface Type
    Project Wall,             !- Construction Name
    Block One storey Storey 0,    !- Zone Name
    ,                         !- Space Name
    outdoors,                 !- Outside Boundary Condition
    ,                         !- Outside Boundary Condition Object
    SunExposed,               !- Sun Exposure
    WindExposed,              !- Wind Exposure
    autocalculate,            !- View Factor to Ground
    autocalculate,            !- Number of Vertices
    0,                        !- Vertex 1 Xcoordinate
    10,                       !- Vertex 1 Ycoordinate
    3,                        !- Vertex 1 Zcoordinate
    0,                        !- Vertex 2 Xcoordinate
    10,                       !- Vertex 2 Ycoordinate
    0,                        !- Vertex 2 Zcoordinate
    0,                        !- Vertex 3 Xcoordinate
    5,                        !- Vertex 3 Ycoordinate
    0,                        !- Vertex 3 Zcoordinate
    0,                        !- Vertex 4 Xcoordinate
    5,                        !- Vertex 4 Ycoordinate
    3;                        !- Vertex 4 Zcoordinate

BUILDINGSURFACE:DETAILED,
    Block One storey Storey 0 Floor 0001,    !- Name
    floor,                    !- Surface Type
    Project Floor,            !- Construction Name
    Block One storey Storey 0,    !- Zone Name
    ,                         !- Space Name
    ground,                   !- Outside Boundary Condition
    ,                         !- Outside Boundary Condition Object
    NoSun,                    !- Sun Exposure
    NoWind,                   !- Wind Exposure
    autocalculate,            !- View Factor to Ground
    autocalculate,            !- Number of Vertices
    10,                       !- Vertex 1 Xcoordinate
    10,                       !- Vertex 1 Ycoordinate
    0,                        !- Vertex 1 Zcoordinate
    10,                       !- Vertex 2 Xcoordinate
    5,                        !- Vertex 2 Ycoordinate
    0,                        !- Vertex 2 Zcoordinate
    0,                        !- Vertex 3 Xcoordinate
    5,                        !- Vertex 3 Ycoordinate
    0,                        !- Vertex 3 Zcoordinate
    0,                        !- Vertex 4 Xcoordinate
    10,                       !- Vertex 4 Ycoordinate
    0;                        !- Vertex 4 Zcoordinate

BUILDINGSURFACE:DETAILED,
    Block One storey Storey 0 Roof 0001,    !- Name
    roof,                     !- Surface Type
    Project Flat Roof,        !- Construction Name
    Block One storey Storey 0,    !- Zone Name
    ,                         !- Space Name
    outdoors,                 !- Outside Boundary Condition
    ,                         !- Outside Boundary Condition Object
    SunExposed,               !- Sun Exposure
    WindExposed,              !- Wind Exposure
    autocalculate,            !- View Factor to Ground
    autocalculate,            !- Number of Vertices
    10,                       !- Vertex 1 Xcoordinate
    5,                        !- Vertex 1 Ycoordinate
    3,                        !- Vertex 1 Zcoordinate
    10,                       !- Vertex 2 Xcoordinate
    10,                       !- Vertex 2 Ycoordinate
    3,                        !- Vertex 2 Zcoordinate
    0,                        !- Vertex 3 Xcoordinate
    10,                       !- Vertex 3 Ycoordinate
    3,                        !- Vertex 3 Zcoordinate
    0,                        !- Vertex 4 Xcoordinate
    5,                        !- Vertex 4 Ycoordinate
    3;                        !- Vertex 4 Zcoordinate

BUILDINGSURFACE:DETAILED,
    Block Two storey Storey 0 Wall 0002_1,    !- Name
    wall,                     !- Surface Type
    Project Partition,        !- Construction Name
    Block Two storey Storey 0,    !- Zone Name
    ,                         !- Space Name
    surface,                  !- Outside Boundary Condition
    Block One storey Storey 0 Wall 0004_1,    !- Outside Boundary Condition Object
    NoSun,                    !- Sun Exposure
    NoWind,                   !- Wind Exposure
    autocalculate,            !- View Factor to Ground
    autocalculate,            !- Number of Vertices
    10,                       !- Vertex 1 Xcoordinate
    5,                        !- Vertex 1 Ycoordinate
    3,                        !- Vertex 1 Zcoordinate
    10,                       !- Vertex 2 Xcoordinate
    5,                        !- Vertex 2 Ycoordinate
    0,                        !- Vertex 2 Zcoordinate
    0,                        !- Vertex 3 Xcoordinate
    5,                        !- Vertex 3 Ycoordinate
    0,                        !- Vertex 3 Zcoordinate
    0,                        !- Vertex 4 Xcoordinate
    5,                        !- Vertex 4 Ycoordinate
    3;                        !- Vertex 4 Zcoordinate

BUILDINGSURFACE:DETAILED,
    Block One storey Storey 0 Wall 0004_1,    !- Name
    wall,                     !- Surface Type
    Project Partition,        !- Construction Name
    Block One storey Storey 0,    !- Zone Name
    ,                         !- Space Name
    surface,                  !- Outside Boundary Condition
    Block Two storey Storey 0 Wall 0002_1,    !- Outside Boundary Condition Object
    NoSun,                    !- Sun Exposure
    NoWind,                   !- Wind Exposure
    autocalculate,            !- View Factor to Ground
    autocalculate,            !- Number of Vertices
    0,                        !- Vertex 1 Xcoordinate
    5,                        !- Vertex 1 Ycoordinate
    3,                        !- Vertex 1 Zcoordinate
    0,                        !- Vertex 2 Xcoordinate
    5,                        !- Vertex 2 Ycoordinate
    0,                        !- Vertex 2 Zcoordinate
    10,                       !- Vertex 3 Xcoordinate
    5,                        !- Vertex 3 Ycoordinate
    0,                        !- Vertex 3 Zcoordinate
    10,                       !- Vertex 4 Xcoordinate
    5,                        !- Vertex 4 Ycoordinate
    3;                        !- Vertex 4 Zcoordinate

BUILDINGSURFACE:DETAILED,
    Block Two storey Storey 0 Ceiling 0001_1,    !- Name
    ceiling,                  !- Surface Type
    Project Ceiling,          !- Construction Name
    Block Two storey Storey 0,    !- Zone Name
    ,                         !- Space Name
    outdoors,                 !- Outside Boundary Condition
    ,                         !- Outside Boundary Condition Object
    SunExposed,               !- Sun Exposure
    WindExposed,              !- Wind Exposure
    autocalculate,            !- View Factor to Ground
    autocalculate,            !- Number of Vertices
    10,                       !- Vertex 1 Xcoordinate
    0,                        !- Vertex 1 Ycoordinate
    3,                        !- Vertex 1 Zcoordinate
    10,                       !- Vertex 2 Xcoordinate
    5,                        !- Vertex 2 Ycoordinate
    3,                        !- Vertex 2 Zcoordinate
    0,                        !- Vertex 3 Xcoordinate
    5,                        !- Vertex 3 Ycoordinate
    3,                        !- Vertex 3 Zcoordinate
    0,                        !- Vertex 4 Xcoordinate
    0,                        !- Vertex 4 Ycoordinate
    3;                        !- Vertex 4 Zcoordinate

BUILDINGSURFACE:DETAILED,
    Block Two storey Storey 1 Floor 0001_1,    !- Name